@<TRIPOS>MOLECULE
JIN_600_2HZI
   44    47     0     0     0
SMALL
USER_CHARGES

@<TRIPOS>ATOM
      1 C1          9.2220   11.4610    1.9550 C.3       1 <0>        -0.0369
      2 C2         15.1530   16.0020    5.3110 C.3       1 <0>         0.0100
      3 C3         22.4560   17.8380    4.9110 C.ar      1 <0>        -0.0590
      4 C4         22.0520   16.8670    5.8630 C.ar      1 <0>        -0.0427
      5 C5         21.7110   18.0230    3.7110 C.ar      1 <0>        -0.0427
      6 C6         12.2820   13.4030    4.1210 C.ar      1 <0>        -0.0377
      7 C7         10.9270   13.7090    4.3430 C.ar      1 <0>        -0.0244
      8 C8         11.6930   11.7860    2.4860 C.ar      1 <0>        -0.0348
      9 C9         18.7180   14.5070    3.5840 C.2       1 <0>        -0.0370
     10 C10        17.3840   12.6850    2.6400 C.ar      1 <0>         0.0416
     11 C11        10.3390   12.1550    2.6880 C.ar      1 <0>        -0.0135
     12 C12        12.7210   12.4780    3.1580 C.ar      1 <0>         0.0340
     13 C13         9.9420   13.0810    3.6230 C.ar      1 <0>         0.1264
     14 C14        20.8670   16.1450    5.6450 C.ar      1 <0>         0.0502
     15 C15        20.5380   17.2630    3.5440 C.ar      1 <0>         0.0502
     16 C16        17.5060   13.8530    3.4140 C.ar      1 <0>         0.0343
     17 C17        18.7910   15.6810    4.3350 C.2       1 <0>         0.0479
     18 C18        20.1290   16.3200    4.5030 C.ar      1 <0>         0.0237
     19 C19        16.3920   14.4070    3.9860 C.ar      1 <0>         0.1398
     20 C20        17.6050   16.1330    4.9300 C.2       1 <0>         0.2524
     21 C21        15.1360   12.7130    3.0870 C.ar      1 <0>         0.2212
     22 N1         16.1630   12.1260    2.5210 N.ar      1 <0>        -0.2220
     23 N2         15.1830   13.8300    3.8310 N.ar      1 <0>        -0.1983
     24 N3         13.9880   12.0550    2.8670 N.pl3     1 <0>        -0.2836
     25 N4         16.4410   15.4940    4.7440 N.am      1 <0>        -0.2546
     26 O1         17.5860   17.1530    5.6210 O.2       1 <0>        -0.2696
     27 F1          8.6710   13.3630    3.8870 F         1 <0>        -0.2052
     28 Cl1        20.3770   14.9170    6.8500 Cl        1 <0>        -0.0829
     29 Cl2        19.6970   17.5810    2.0470 Cl        1 <0>        -0.0829
     30 H1          8.9078   10.5719    2.5214 H         1 <0>         0.0278
     31 H2          8.3698   12.1486    1.8498 H         1 <0>         0.0278
     32 H3          9.5721   11.1555    0.9579 H         1 <0>         0.0278
     33 H4         15.3466   16.9017    5.9136 H         1 <0>         0.0433
     34 H5         14.4645   16.2517    4.4903 H         1 <0>         0.0433
     35 H6         14.7007   15.2260    5.9460 H         1 <0>         0.0433
     36 H7         23.3330   18.4402    5.0970 H         1 <0>         0.0618
     37 H8         22.6484   16.6851    6.7448 H         1 <0>         0.0632
     38 H9         22.0352   18.7227    2.9549 H         1 <0>         0.0632
     39 H10        13.0247   13.9057    4.7227 H         1 <0>         0.0637
     40 H11        10.6595   14.4449    5.0869 H         1 <0>         0.0647
     41 H12        11.9370   10.9742    1.8168 H         1 <0>         0.0640
     42 H13        19.6121   14.1042    3.1315 H         1 <0>         0.0633
     43 H14        18.2443   12.2482    2.1546 H         1 <0>         0.0838
     44 H15        14.0680   11.1533    2.4422 H         1 <0>         0.1550
@<TRIPOS>BOND
     1    1   11 1
     2    2   25 1
     3    3    4 ar
     4    3    5 ar
     5    4   14 ar
     6    5   15 ar
     7    6    7 ar
     8    6   12 ar
     9    7   13 ar
    10    8   11 ar
    11    8   12 ar
    12    9   16 1
    13    9   17 2
    14   10   16 ar
    15   10   22 ar
    16   11   13 ar
    17   12   24 1
    18   13   27 1
    19   14   18 ar
    20   14   28 1
    21   15   18 ar
    22   15   29 1
    23   16   19 ar
    24   17   18 1
    25   17   20 1
    26   19   23 ar
    27   19   25 1
    28   20   25 am
    29   20   26 2
    30   21   22 ar
    31   21   23 ar
    32   21   24 1
    33    1   30 1
    34    1   31 1
    35    1   32 1
    36    2   33 1
    37    2   34 1
    38    2   35 1
    39    3   36 1
    40    4   37 1
    41    5   38 1
    42    6   39 1
    43    7   40 1
    44    8   41 1
    45    9   42 1
    46   10   43 1
    47   24   44 1
