ALE_A_1402
  MOE2020           3D

 27 27  0  0  1  0  0  0  0  0999 V2000
   -3.8290  -13.1190  -47.8540 O   0  0  0  0  0  0  0  0  0  0  0  0
    2.0290  -11.4480  -46.7750 O   0  0  0  0  0  0  0  0  0  0  0  0
    1.9690  -12.5610  -49.1420 O   0  0  0  0  0  0  0  0  0  0  0  0
   -4.4790  -12.6650  -50.6090 N   0  3  0  0  0  0  0  0  0  0  0  0
   -4.8340  -11.7770  -51.7250 C   0  0  0  0  0  0  0  0  0  0  0  0
   -3.2070  -12.2270  -50.0170 C   0  0  0  0  0  0  0  0  0  0  0  0
   -0.3580  -11.6770  -46.5060 C   0  0  0  0  0  0  0  0  0  0  0  0
   -1.5630  -12.1100  -47.0520 C   0  0  0  0  0  0  0  0  0  0  0  0
   -0.4210  -12.8680  -49.0380 C   0  0  0  0  0  0  0  0  0  0  0  0
   -2.8050  -13.1350  -48.8530 C   0  0  1  0  0  0  0  0  0  0  0  0
    0.8120  -11.8440  -47.2370 C   0  0  0  0  0  0  0  0  0  0  0  0
    0.7810  -12.4340  -48.4920 C   0  0  0  0  0  0  0  0  0  0  0  0
   -1.5970  -12.7030  -48.3120 C   0  0  0  0  0  0  0  0  0  0  0  0
   -4.2925  -12.2330  -47.8660 H   0  0  0  0  0  0  0  0  0  0  0  0
    2.1065  -11.0174  -45.8758 H   0  0  0  0  0  0  0  0  0  0  0  0
    2.8112  -12.2350  -48.7126 H   0  0  0  0  0  0  0  0  0  0  0  0
   -4.3843  -13.6017  -50.9460 H   0  0  0  0  0  0  0  0  0  0  0  0
   -5.6995  -12.0762  -52.1267 H   0  0  0  0  0  0  0  0  0  0  0  0
   -4.9290  -10.8402  -51.3883 H   0  0  0  0  0  0  0  0  0  0  0  0
   -4.1151  -11.8104  -52.4193 H   0  0  0  0  0  0  0  0  0  0  0  0
   -3.3073  -11.2902  -49.6819 H   0  0  0  0  0  0  0  0  0  0  0  0
   -2.4931  -12.2561  -50.7166 H   0  0  0  0  0  0  0  0  0  0  0  0
   -0.3346  -11.2520  -45.6011 H   0  0  0  0  0  0  0  0  0  0  0  0
   -2.4114  -11.9944  -46.5354 H   0  0  0  0  0  0  0  0  0  0  0  0
   -0.4408  -13.2941  -49.9425 H   0  0  0  0  0  0  0  0  0  0  0  0
   -2.6947  -14.0694  -49.1917 H   0  0  0  0  0  0  0  0  0  0  0  0
   -5.1982  -12.6315  -49.9151 H   0  0  0  0  0  0  0  0  0  0  0  0
  1 10  1  0  0  0  0
  1 14  1  0  0  0  0
  2 11  1  0  0  0  0
  2 15  1  0  0  0  0
  3 12  1  0  0  0  0
  3 16  1  0  0  0  0
  4  5  1  0  0  0  0
  4  6  1  0  0  0  0
  4 17  1  0  0  0  0
  4 27  1  0  0  0  0
  5 18  1  0  0  0  0
  5 19  1  0  0  0  0
  5 20  1  0  0  0  0
  6 10  1  0  0  0  0
  6 21  1  0  0  0  0
  6 22  1  0  0  0  0
  7  8  1  0  0  0  0
  7 11  2  0  0  0  0
  7 23  1  0  0  0  0
  8 13  2  0  0  0  0
  8 24  1  0  0  0  0
  9 12  2  0  0  0  0
  9 13  1  0  0  0  0
  9 25  1  0  0  0  0
 10 13  1  0  0  0  0
 10 26  1  0  0  0  0
 11 12  1  0  0  0  0
M  CHG  1   4   1
M  END
$$$$
